
#======================================================================
# CRYSTAL DATA
#----------------------------------------------------------------------
data_VESTA_phase_1

_chemical_name_common                  'CONTCAR-3N-CO                         '
_cell_length_a                         12.375900
_cell_length_b                         12.287800
_cell_length_c                         18.400000
_cell_angle_alpha                      90.000000
_cell_angle_beta                       90.000000
_cell_angle_gamma                      120.264198
_cell_volume                           2416.779413
_space_group_name_H-M_alt              'P 1'
_space_group_IT_number                 1

loop_
_space_group_symop_operation_xyz
   'x, y, z'

loop_
   _atom_site_label
   _atom_site_occupancy
   _atom_site_fract_x
   _atom_site_fract_y
   _atom_site_fract_z
   _atom_site_adp_type
   _atom_site_U_iso_or_equiv
   _atom_site_type_symbol
   C1         1.0     0.998412     0.998959     0.407590    Uiso  ? C
   C2         1.0     0.065197     0.132522     0.407528    Uiso  ? C
   C3         1.0     0.998815     0.995932     0.593545    Uiso  ? C
   C4         1.0     0.133645     0.065840     0.593737    Uiso  ? C
   C5         1.0     0.998424     0.198955     0.407311    Uiso  ? C
   C6         1.0     0.065185     0.332482     0.407074    Uiso  ? C
   C7         1.0     0.997258     0.194456     0.593037    Uiso  ? C
   C8         1.0     0.131054     0.263402     0.593155    Uiso  ? C
   C9         1.0     0.998420     0.398934     0.406834    Uiso  ? C
   C10        1.0     0.065179     0.532479     0.406733    Uiso  ? C
   C11        1.0     0.998092     0.395848     0.591595    Uiso  ? C
   C12        1.0     0.130250     0.463891     0.591479    Uiso  ? C
   C13        1.0     0.998422     0.598938     0.406799    Uiso  ? C
   C14        1.0     0.065194     0.732493     0.406993    Uiso  ? C
   C15        1.0     0.000908     0.597505     0.591242    Uiso  ? C
   C16        1.0     0.133112     0.665609     0.591688    Uiso  ? C
   C17        1.0     0.998424     0.798940     0.407343    Uiso  ? C
   C18        1.0     0.065187     0.932501     0.407492    Uiso  ? C
   C19        1.0     0.001724     0.798422     0.592753    Uiso  ? C
   C20        1.0     0.135083     0.867136     0.593130    Uiso  ? C
   C21        1.0     0.198427     0.998963     0.407512    Uiso  ? C
   C22        1.0     0.265209     0.132518     0.407654    Uiso  ? C
   C23        1.0     0.202270     0.001462     0.593853    Uiso  ? C
   C24        1.0     0.336591     0.070527     0.593984    Uiso  ? C
   C25        1.0     0.198437     0.198967     0.407630    Uiso  ? C
   C26        1.0     0.265205     0.332506     0.407622    Uiso  ? C
   C27        1.0     0.200992     0.200427     0.594032    Uiso  ? C
   C28        1.0     0.336739     0.272092     0.595805    Uiso  ? C
   C29        1.0     0.198400     0.398914     0.407321    Uiso  ? C
   C30        1.0     0.265151     0.532460     0.407282    Uiso  ? C
   C31        1.0     0.195840     0.397221     0.592119    Uiso  ? C
   C32        1.0     0.327877     0.465950     0.593097    Uiso  ? C
   C33        1.0     0.198406     0.598924     0.406953    Uiso  ? C
   C34        1.0     0.265176     0.732472     0.407041    Uiso  ? C
   C35        1.0     0.197176     0.597772     0.591690    Uiso  ? C
   C36        1.0     0.329623     0.665975     0.592125    Uiso  ? C
   C37        1.0     0.198418     0.798939     0.407082    Uiso  ? C
   C38        1.0     0.265184     0.932493     0.407341    Uiso  ? C
   C39        1.0     0.200405     0.799745     0.592446    Uiso  ? C
   C40        1.0     0.333268     0.867181     0.592701    Uiso  ? C
   C41        1.0     0.398419     0.998954     0.407417    Uiso  ? C
   C42        1.0     0.465187     0.132498     0.407455    Uiso  ? C
   C43        1.0     0.400889     0.001179     0.593312    Uiso  ? C
   C44        1.0     0.533677     0.065446     0.593314    Uiso  ? C
   C45        1.0     0.398434     0.198968     0.407645    Uiso  ? C
   C46        1.0     0.465196     0.332517     0.407749    Uiso  ? C
   C47        1.0     0.404628     0.205697     0.594369    Uiso  ? C
   C48        1.0     0.538885     0.272424     0.592263    Uiso  ? C
   C49        1.0     0.398425     0.398941     0.407884    Uiso  ? C
   C50        1.0     0.465154     0.532461     0.407984    Uiso  ? C
   C51        1.0     0.398396     0.598903     0.407731    Uiso  ? C
   C52        1.0     0.465169     0.732472     0.407695    Uiso  ? C
   C53        1.0     0.394125     0.599672     0.591843    Uiso  ? C
   C54        1.0     0.398419     0.798937     0.407373    Uiso  ? C
   C55        1.0     0.465179     0.932500     0.407407    Uiso  ? C
   C56        1.0     0.398080     0.799111     0.592414    Uiso  ? C
   C57        1.0     0.530738     0.861119     0.592895    Uiso  ? C
   C58        1.0     0.598428     0.998966     0.407486    Uiso  ? C
   C59        1.0     0.665200     0.132514     0.407270    Uiso  ? C
   C60        1.0     0.598711     0.995703     0.593250    Uiso  ? C
   C61        1.0     0.731424     0.059650     0.593240    Uiso  ? C
   C62        1.0     0.598430     0.198956     0.407273    Uiso  ? C
   C63        1.0     0.665184     0.332514     0.407150    Uiso  ? C
   C64        1.0     0.601445     0.200189     0.592664    Uiso  ? C
   C65        1.0     0.733986     0.262786     0.591975    Uiso  ? C
   C66        1.0     0.598409     0.398947     0.407497    Uiso  ? C
   C67        1.0     0.665153     0.532462     0.407750    Uiso  ? C
   C68        1.0     0.736259     0.463307     0.590304    Uiso  ? C
   C69        1.0     0.598408     0.598943     0.408187    Uiso  ? C
   C70        1.0     0.665173     0.732490     0.408089    Uiso  ? C
   C71        1.0     0.598415     0.798940     0.407926    Uiso  ? C
   C72        1.0     0.665171     0.932490     0.407681    Uiso  ? C
   C73        1.0     0.592514     0.787738     0.593056    Uiso  ? C
   C74        1.0     0.727357     0.853342     0.594124    Uiso  ? C
   C75        1.0     0.798410     0.998962     0.407616    Uiso  ? C
   C76        1.0     0.865195     0.132507     0.407319    Uiso  ? C
   C77        1.0     0.795582     0.989692     0.593781    Uiso  ? C
   C78        1.0     0.929899     0.059876     0.593656    Uiso  ? C
   C79        1.0     0.798429     0.198943     0.407138    Uiso  ? C
   C80        1.0     0.865192     0.332498     0.406862    Uiso  ? C
   C81        1.0     0.798735     0.194197     0.592460    Uiso  ? C
   C82        1.0     0.931555     0.261618     0.592287    Uiso  ? C
   C83        1.0     0.798427     0.398941     0.406903    Uiso  ? C
   C84        1.0     0.865190     0.532479     0.406929    Uiso  ? C
   C85        1.0     0.801361     0.396550     0.591356    Uiso  ? C
   C86        1.0     0.933767     0.463793     0.591393    Uiso  ? C
   C87        1.0     0.798385     0.598918     0.407447    Uiso  ? C
   C88        1.0     0.865184     0.732483     0.407590    Uiso  ? C
   C89        1.0     0.804410     0.598085     0.591541    Uiso  ? C
   C90        1.0     0.936154     0.664789     0.591529    Uiso  ? C
   C91        1.0     0.798409     0.798950     0.407872    Uiso  ? C
   C92        1.0     0.865175     0.932512     0.407706    Uiso  ? C
   C93        1.0     0.797138     0.788195     0.594182    Uiso  ? C
   C94        1.0     0.932002     0.861327     0.593337    Uiso  ? C
   C95        1.0     0.398155     0.405272     0.597405    Uiso  ? C
   C96        1.0     0.566566     0.524450     0.709839    Uiso  ? C
   N1         1.0     0.521639     0.657896     0.591316    Uiso  ? N
   N2         1.0     0.607792     0.402975     0.588433    Uiso  ? N
   N3         1.0     0.737605     0.658710     0.594464    Uiso  ? N
   Ni1        1.0     0.565589     0.529063     0.604070    Uiso  ? Ni
   O1         1.0     0.634657     0.498826     0.744148    Uiso  ? O
   O2         1.0     0.488171     0.557535     0.742088    Uiso  ? O
   H1         1.0     0.499918     0.555143     0.794894    Uiso  ? H
