
#======================================================================
# CRYSTAL DATA
#----------------------------------------------------------------------
data_VESTA_phase_1

_chemical_name_common                  'CONTCAR-3N-CO                         '
_cell_length_a                         12.375900
_cell_length_b                         12.287800
_cell_length_c                         18.400000
_cell_angle_alpha                      90.000000
_cell_angle_beta                       90.000000
_cell_angle_gamma                      120.264198
_cell_volume                           2416.779413
_space_group_name_H-M_alt              'P 1'
_space_group_IT_number                 1

loop_
_space_group_symop_operation_xyz
   'x, y, z'

loop_
   _atom_site_label
   _atom_site_occupancy
   _atom_site_fract_x
   _atom_site_fract_y
   _atom_site_fract_z
   _atom_site_adp_type
   _atom_site_U_iso_or_equiv
   _atom_site_type_symbol
   C1         1.0     0.998857     0.998652     0.406556    Uiso  ? C
   C2         1.0     0.065644     0.132236     0.406365    Uiso  ? C
   C3         1.0     0.000098     0.999819     0.591693    Uiso  ? C
   C4         1.0     0.134729     0.069704     0.591704    Uiso  ? C
   C5         1.0     0.998871     0.198649     0.406322    Uiso  ? C
   C6         1.0     0.065645     0.332176     0.406247    Uiso  ? C
   C7         1.0     0.998058     0.197964     0.591660    Uiso  ? C
   C8         1.0     0.131902     0.267021     0.591500    Uiso  ? C
   C9         1.0     0.998870     0.398616     0.406283    Uiso  ? C
   C10        1.0     0.065603     0.532126     0.406340    Uiso  ? C
   C11        1.0     0.999243     0.399666     0.591842    Uiso  ? C
   C12        1.0     0.131174     0.467633     0.591649    Uiso  ? C
   C13        1.0     0.998859     0.598625     0.406478    Uiso  ? C
   C14        1.0     0.065608     0.732173     0.406586    Uiso  ? C
   C15        1.0     0.002368     0.601374     0.591927    Uiso  ? C
   C16        1.0     0.134402     0.669481     0.591872    Uiso  ? C
   C17        1.0     0.998843     0.798644     0.406695    Uiso  ? C
   C18        1.0     0.065639     0.932232     0.406612    Uiso  ? C
   C19        1.0     0.003268     0.802665     0.591732    Uiso  ? C
   C20        1.0     0.136607     0.871372     0.591848    Uiso  ? C
   C21        1.0     0.198877     0.998689     0.406543    Uiso  ? C
   C22        1.0     0.265634     0.132244     0.406390    Uiso  ? C
   C23        1.0     0.203603     0.005687     0.591717    Uiso  ? C
   C24        1.0     0.338204     0.075187     0.591546    Uiso  ? C
   C25        1.0     0.198865     0.198685     0.406313    Uiso  ? C
   C26        1.0     0.265640     0.332208     0.406230    Uiso  ? C
   C27        1.0     0.202119     0.204505     0.591440    Uiso  ? C
   C28        1.0     0.337543     0.276387     0.590961    Uiso  ? C
   C29        1.0     0.198851     0.398611     0.406260    Uiso  ? C
   C30        1.0     0.265618     0.532161     0.406360    Uiso  ? C
   C31        1.0     0.196629     0.400798     0.591332    Uiso  ? C
   C32        1.0     0.328356     0.468953     0.590663    Uiso  ? C
   C33        1.0     0.198846     0.598602     0.406422    Uiso  ? C
   C34        1.0     0.265597     0.732157     0.406512    Uiso  ? C
   C35        1.0     0.198229     0.601509     0.591606    Uiso  ? C
   C36        1.0     0.330838     0.669826     0.591238    Uiso  ? C
   C37        1.0     0.198847     0.798624     0.406610    Uiso  ? C
   C38        1.0     0.265619     0.932202     0.406593    Uiso  ? C
   C39        1.0     0.201886     0.803893     0.591758    Uiso  ? C
   C40        1.0     0.334637     0.871406     0.591589    Uiso  ? C
   C41        1.0     0.398847     0.998666     0.406532    Uiso  ? C
   C42        1.0     0.465591     0.132218     0.406423    Uiso  ? C
   C43        1.0     0.402334     0.005414     0.591511    Uiso  ? C
   C44        1.0     0.534921     0.069391     0.591463    Uiso  ? C
   C45        1.0     0.398845     0.198691     0.406389    Uiso  ? C
   C46        1.0     0.465601     0.332235     0.406377    Uiso  ? C
   C47        1.0     0.405744     0.210000     0.591179    Uiso  ? C
   C48        1.0     0.540376     0.276968     0.591134    Uiso  ? C
   C49        1.0     0.398839     0.398650     0.406342    Uiso  ? C
   C50        1.0     0.465587     0.532152     0.406483    Uiso  ? C
   C51        1.0     0.398867     0.598590     0.406510    Uiso  ? C
   C52        1.0     0.465617     0.732163     0.406638    Uiso  ? C
   C53        1.0     0.395153     0.603592     0.590575    Uiso  ? C
   C54        1.0     0.398847     0.798610     0.406579    Uiso  ? C
   C55        1.0     0.465617     0.932203     0.406548    Uiso  ? C
   C56        1.0     0.399422     0.803131     0.591321    Uiso  ? C
   C57        1.0     0.531824     0.864768     0.591217    Uiso  ? C
   C58        1.0     0.598852     0.998646     0.406505    Uiso  ? C
   C59        1.0     0.665614     0.132214     0.406389    Uiso  ? C
   C60        1.0     0.599855     0.999532     0.591408    Uiso  ? C
   C61        1.0     0.732435     0.063256     0.591536    Uiso  ? C
   C62        1.0     0.598834     0.198642     0.406386    Uiso  ? C
   C63        1.0     0.665599     0.332207     0.406367    Uiso  ? C
   C64        1.0     0.602752     0.204337     0.591432    Uiso  ? C
   C65        1.0     0.735111     0.266575     0.591654    Uiso  ? C
   C66        1.0     0.598817     0.398638     0.406441    Uiso  ? C
   C67        1.0     0.665585     0.532152     0.406657    Uiso  ? C
   C68        1.0     0.737798     0.467111     0.591192    Uiso  ? C
   C69        1.0     0.598831     0.598639     0.406866    Uiso  ? C
   C70        1.0     0.665604     0.732188     0.406827    Uiso  ? C
   C71        1.0     0.598860     0.798643     0.406726    Uiso  ? C
   C72        1.0     0.665620     0.932193     0.406582    Uiso  ? C
   C73        1.0     0.593515     0.791074     0.590776    Uiso  ? C
   C74        1.0     0.728392     0.856862     0.590988    Uiso  ? C
   C75        1.0     0.798843     0.998647     0.406542    Uiso  ? C
   C76        1.0     0.865618     0.132193     0.406384    Uiso  ? C
   C77        1.0     0.796460     0.992951     0.591404    Uiso  ? C
   C78        1.0     0.930858     0.063472     0.591620    Uiso  ? C
   C79        1.0     0.798847     0.198619     0.406333    Uiso  ? C
   C80        1.0     0.865628     0.332182     0.406288    Uiso  ? C
   C81        1.0     0.799816     0.197787     0.591693    Uiso  ? C
   C82        1.0     0.932502     0.265209     0.591738    Uiso  ? C
   C83        1.0     0.798864     0.398629     0.406358    Uiso  ? C
   C84        1.0     0.865627     0.532178     0.406451    Uiso  ? C
   C85        1.0     0.802772     0.400538     0.591664    Uiso  ? C
   C86        1.0     0.935226     0.467767     0.591900    Uiso  ? C
   C87        1.0     0.798818     0.598611     0.406663    Uiso  ? C
   C88        1.0     0.865605     0.732185     0.406792    Uiso  ? C
   C89        1.0     0.806347     0.602691     0.591096    Uiso  ? C
   C90        1.0     0.937575     0.668750     0.591745    Uiso  ? C
   C91        1.0     0.798831     0.798662     0.406822    Uiso  ? C
   C92        1.0     0.865610     0.932206     0.406663    Uiso  ? C
   C93        1.0     0.798406     0.791743     0.590969    Uiso  ? C
   C94        1.0     0.933440     0.865211     0.591572    Uiso  ? C
   C95        1.0     0.399941     0.409714     0.590197    Uiso  ? C
   C96        1.0     0.557326     0.520710     0.766108    Uiso  ? C
   N1         1.0     0.522544     0.661214     0.590203    Uiso  ? N
   N2         1.0     0.609708     0.407558     0.590821    Uiso  ? N
   N3         1.0     0.739239     0.662824     0.590382    Uiso  ? N
   Ni1        1.0     0.566838     0.533440     0.589367    Uiso  ? Ni
   O1         1.0     0.635157     0.628046     0.764787    Uiso  ? O
   O2         1.0     0.479790     0.413540     0.769271    Uiso  ? O
